Circuit: * C:\Users\albytest\STM32CubeIDE\workspaceArmRadioH7\Preamp LTSpice\Preamp.asc

Direct Newton iteration for .op point succeeded.

Date: Sun May 10 17:27:23 2020
Total elapsed time: 0.057 seconds.

tnom = 27
temp = 27
method = modified trap
totiter = 5172
traniter = 5165
tranpoints = 2011
accept = 1215
rejected = 796
matrix size = 12
fillins = 0
solver = Normal
Matrix Compiler1:      36 opcodes  0.3/[0.1]/0.1
Matrix Compiler2: off  [0.1]/0.1/0.1

